---- qbsp / ericw-tools 2.0.0-alpha8-29-gb2f23f76 ----

--- Options Summary ---
    "nocolor" was set to "1" (from command line)

Input file: C:\Users\Meredith001\Documents\gyro-quake\working\quake\gyro-compile.map
Output file: C:\Users\Meredith001\Documents\gyro-quake\working\quake\gyro.bsp

INFO: using built-in palette.
WARNING: gyro-compile.map[line 6]: Unrecognised string escape - \.
WARNING: gyro-compile.map[line 6]: Unrecognised string escape - \e
WARNING: gyro-compile.map[line 6]: Unrecognised string escape - \q
WARNING: gyro-compile.map[line 6]: Unrecognised string escape - \p
WARNING: gyro-compile.map[line 6]: Unrecognised string escape - \p
WARNING: gyro-compile.map[line 6]: Unrecognised string escape - \.
WARNING: gyro-compile.map[line 6]: Unrecognised string escape - \e
WARNING: gyro-compile.map[line 6]: Unrecognised string escape - \q
WARNING: gyro-compile.map[line 6]: Unrecognised string escape - \p
WARNING: gyro-compile.map[line 6]: Unrecognised string escape - \p
     2 entities
     6 unique textures
    31 texinfos
    46 unique planes

INFO: world extents calculated to 1064 units
     5 brushes
    30 sides

            0 texture frames added
Processing hull 0...
    5 SOLID brushes
    5 brushes total
    30 visible sides
INFO: calculating BSP for 5 brushes with 30 sides
     5 brushes
    30 visible faces
    26 nodes
    26 expensive split nodes
    27 leaves
    22 EMPTY leafs
     5 SOLID leafs
    27 leafs total
    9 max tree height
    6 avg tree height
    150 tree portals
WARNING: Reached occupant "info_player_start" at (-96 -48 88), no filling performed.
Leak file written to gyro.pts
            3 portals written to gyro.leak.prt
    150 tree portals
    32 sides visible
    32 makefaces
     2 merged
     8 subdivided
    22 EMPTY leafs
     5 SOLID leafs
    27 leafs total
    9 max tree height
    6 avg tree height
     8 edges added by tjunctions
    38 faces optimized through MWT
    84 triangles computed from MWT
    80 edges
    38 faces
Processing hull 1...
WARNING: Reached occupant "info_player_start" at (-96 -48 88), no filling performed.
Processing hull 2...
WARNING: Reached occupant "info_player_start" at (-96 -48 88), no filling performed.
Writing gyro.bsp as Quake BSP bsp29
Wrote gyro.bsp

count   lump name    byte size 
      1 models               64
     55 planes             1100
     52 vertexes            624
     26 nodes               624
     30 texinfos           1200
     38 faces               760
    142 clipnodes          1136
     23 leafs               644
     40 marksurfaces         80
     81 edges               324
    160 surfedges           640
      6 textures          98188
        lightdata             0
        visdata               0
        entdata             231

0.014s seconds elapsed


